case_study/opendss_scripts/LVTestCase/Loads_wye.txt
New Load.LOAD1 Phases=3 Bus1=100 conn=wye kV=(0.23 3 sqrt *) kW=1 PF=0.95 Yearly=Shape_1
New Load.LOAD2 Phases=3 Bus1=110 conn=wye kV=(0.23 3 sqrt *) kW=1 PF=0.95 Yearly=Shape_2
New Load.LOAD3 Phases=3 Bus1=120 conn=wye kV=(0.23 3 sqrt *) kW=1 PF=0.95 Yearly=Shape_3
New Load.LOAD4 Phases=3 Bus1=130 conn=wye kV=(0.23 3 sqrt *) kW=1 PF=0.95 Yearly=Shape_4
New Load.LOAD5 Phases=3 Bus1=140 conn=wye kV=(0.23 3 sqrt *) kW=1 PF=0.95 Yearly=Shape_5
New Load.LOAD6 Phases=3 Bus1=101 conn=wye kV=(0.23 3 sqrt *) kW=1 PF=0.95 Yearly=Shape_6
New Load.LOAD7 Phases=3 Bus1=111 conn=wye kV=(0.23 3 sqrt *) kW=1 PF=0.95 Yearly=Shape_7
New Load.LOAD8 Phases=3 Bus1=121 conn=wye kV=(0.23 3 sqrt *) kW=1 PF=0.95 Yearly=Shape_8
New Load.LOAD9 Phases=3 Bus1=131 conn=wye kV=(0.23 3 sqrt *) kW=1 PF=0.95 Yearly=Shape_9
New Load.LOAD10 Phases=3 Bus1=141 conn=wye kV=(0.23 3 sqrt *) kW=1 PF=0.95 Yearly=Shape_10
New Load.LOAD11 Phases=3 Bus1=200 conn=wye kV=(0.23 3 sqrt *) kW=1 PF=0.95 Yearly=Shape_11
New Load.LOAD12 Phases=3 Bus1=210 conn=wye kV=(0.23 3 sqrt *) kW=1 PF=0.95 Yearly=Shape_12
New Load.LOAD13 Phases=3 Bus1=220 conn=wye kV=(0.23 3 sqrt *) kW=1 PF=0.95 Yearly=Shape_13
New Load.LOAD14 Phases=3 Bus1=230 conn=wye kV=(0.23 3 sqrt *) kW=1 PF=0.95 Yearly=Shape_14
New Load.LOAD15 Phases=3 Bus1=240 conn=wye kV=(0.23 3 sqrt *) kW=1 PF=0.95 Yearly=Shape_15
New Load.LOAD16 Phases=3 Bus1=201 conn=wye kV=(0.23 3 sqrt *) kW=1 PF=0.95 Yearly=Shape_16
New Load.LOAD17 Phases=3 Bus1=211 conn=wye kV=(0.23 3 sqrt *) kW=1 PF=0.95 Yearly=Shape_17
New Load.LOAD18 Phases=3 Bus1=221 conn=wye kV=(0.23 3 sqrt *) kW=1 PF=0.95 Yearly=Shape_18
New Load.LOAD19 Phases=3 Bus1=231 conn=wye kV=(0.23 3 sqrt *) kW=1 PF=0.95 Yearly=Shape_19
New Load.LOAD20 Phases=3 Bus1=241 conn=wye kV=(0.23 3 sqrt *) kW=1 PF=0.95 Yearly=Shape_20
